This is my first file.second line
New line.
